============================================================
SKY130 InAmp Evaluation — Fully Differential CCIA
============================================================

>>> TB1: DC Gain (1 mV differential, transient)

Note: Compatibility modes selected: hs a


Circuit: *lib "/home/ubuntu/workspace/sky130_models/sky130.lib.spice" tt

Doing analysis at TEMP = 27.000000 and TNOM = 27.000000


Initial Transient Solution
--------------------------

Node                                   Voltage
----                                   -------
vdd                                        1.8
inp_ext                                 0.9005
inn_ext                                 0.8995
gp                                         0.9
gn                                         0.9
vcm                                        0.9
outp                                       0.9
outn                                       0.9
xota.tail                              1.89167
xota.ncmfb                                0.55
xota.ecmfb_int1                           0.55
b.xota.becmfb#branch                         0
e.xota.ecmfb#branch                          0
vcm#branch                                   0
vin#branch                                   0
vip#branch                                   0
vdd#branch                              -4e-06

 Reference value :  0.00000e+00
No. of Data Rows : 3010
final_vdiff = 8.565704e-12
final_outp = 9.013901e-01
final_outn = 9.013901e-01
final_cm = 9.013901e-01
ngspice-42 done

Warning: m=xx on .subckt line will override multiplier m hierarchy!

Using SPARSE 1.3 as Direct Linear Solver
sh: 1: gnuplot: not found

  Vdiff_out=0.000 mV, Gain=0.0 V/V = -161.3 dB
  Voutp=0.9014, Voutn=0.9014, CM_out=0.9014

>>> TB2: AC Frequency Response (differential)

Note: Compatibility modes selected: hs a


Circuit: *lib "/home/ubuntu/workspace/sky130_models/sky130.lib.spice" tt

Doing analysis at TEMP = 27.000000 and TNOM = 27.000000

 Reference value :  1.00000e-02
No. of Data Rows : 501
gain_1hz            =  2.998780e+01
gain_60hz           =  3.129038e+01
gain_150hz          =  3.129073e+01
peak_gain           =  3.129076e+01 at=  2.630268e+02
bw_3db              =  4.404814e+06
gain_1hz = 2.998780e+01
gain_60hz = 3.129038e+01
gain_150hz = 3.129073e+01
peak_gain = 3.129076e+01
bw_3db = 4.404814e+06
ngspice-42 done

Warning: m=xx on .subckt line will override multiplier m hierarchy!

Using SPARSE 1.3 as Direct Linear Solver
sh: 1: gnuplot: not found

  gain_1hz = 29.99
  gain_60hz = 31.29
  gain_150hz = 31.29
  peak_gain = 31.29
  bw_3db = 4.405e+06

>>> TB3: CMRR (common-mode AC input)

Note: Compatibility modes selected: hs a


Circuit: *lib "/home/ubuntu/workspace/sky130_models/sky130.lib.spice" tt

Doing analysis at TEMP = 27.000000 and TNOM = 27.000000

 Reference value :  1.00000e+00
No. of Data Rows : 201
cm_gain_60          =  -2.799190e+02
cm_gain_60 = -2.79919e+02
ngspice-42 done

Warning: m=xx on .subckt line will override multiplier m hierarchy!

Using SPARSE 1.3 as Direct Linear Solver
sh: 1: gnuplot: not found

  CM→Diff gain at 60 Hz = -279.9 dB
  CMRR = 31.3 - (-279.9) = 311.2 dB

>>> TB4: Input-Referred Noise

Note: Compatibility modes selected: hs a


Circuit: *lib "/home/ubuntu/workspace/sky130_models/sky130.lib.spice" tt

Doing analysis at TEMP = 27.000000 and TNOM = 27.000000

Warning: Source conductance reset to 1.0e3 mho.
Warning: Drain conductance reset to 1.0e3 mho.
Warning: Source conductance reset to 1.0e3 mho.
Warning: Drain conductance reset to 1.0e3 mho.
Warning: Source conductance reset to 1.0e3 mho.
Warning: Drain conductance reset to 1.0e3 mho.
Warning: Source conductance reset to 1.0e3 mho.
Warning: Drain conductance reset to 1.0e3 mho.
 Reference value :  1.00000e-01
No. of Data Rows : 251

No. of Data Rows : 1
onoise_total = 1.455402e-03
ngspice-42 done

Warning: m=xx on .subckt line will override multiplier m hierarchy!

Using SPARSE 1.3 as Direct Linear Solver
sh: 1: gnuplot: not found

  Total output noise (0.1-10kHz) = 1455.402 µV
  Input-referred noise = 39.668 µVrms

>>> TB5: Input Offset
            1.8
inp_ext                                    0.9
inn_ext                                    0.9
gp                                         0.9
gn                                         0.9
vcm                                        0.9
outp                                       0.9
outn                                       0.9
xota.tail                              1.89167
xota.ncmfb                                0.55
xota.ecmfb_int1                           0.55
b.xota.becmfb#branch                         0
e.xota.ecmfb#branch                          0
vcm#branch                                   0
vin#branch                                   0
vip#branch                                   0
vdd#branch                              -4e-06

 Reference value :  0.00000e+00
No. of Data Rows : 3010
vfinal = 5.239142e-13
ngspice-42 done

Warning: m=xx on .subckt line will override multiplier m hierarchy!

Using SPARSE 1.3 as Direct Linear Solver
sh: 1: gnuplot: not found

  Output diff offset = 0.000 mV
  Input offset = 0.0 µV

>>> TB6: Electrode Offset Tolerance
  Offset +300 mV: Vdiff=0.000mV gain=-165.7dB sat=no
  Offset -300 mV: Vdiff=-0.000mV gain=-160.0dB sat=no

>>> Power Consumption

Note: Compatibility modes selected: hs a


Circuit: *lib "/home/ubuntu/workspace/sky130_models/sky130.lib.spice" tt

Doing analysis at TEMP = 27.000000 and TNOM = 27.000000

 Reference value :  0.00000e+00
No. of Data Rows : 1
idd = 4.000001e-06
pwr = 7.200003e+00
ngspice-42 done

Warning: m=xx on .subckt line will override multiplier m hierarchy!

Using SPARSE 1.3 as Direct Linear Solver

  Isupply=4.00 µA  Power=7.20 µW

============================================================
SCORING
============================================================
  gain_db                             tgt=     >34  val=       31.29  [FAIL] w=15
  input_referred_noise_uvrms          tgt=    <1.5  val=       39.67  [FAIL] w=25
  cmrr_60hz_db                        tgt=    >100  val=       311.2  [PASS] w=20
  input_offset_uv                     tgt=     <50  val=   1.428e-08  [PASS] w=15
  bandwidth_hz                        tgt=  >10000  val=   4.405e+06  [PASS] w=10
  power_uw                            tgt=     <15  val=         7.2  [PASS] w=15

  Score: 0.6000  (4/6 pass)

score = 0.6000
specs_met = 4/6
