============================================================
SKY130 InAmp — Folded-Cascode CCIA Evaluation
============================================================

>>> TB1: DC Gain (1 mV differential, transient 1s)
         1.79897
xota.ncas                                  0.7
xota.ncmfb                                0.45
xota.ecmfb_int1                           0.45
b.xota.becmfb#branch                         0
bgfb_n#branch                                0
bgfb_p#branch                                0
bgpb_n#branch                                0
bgpb_p#branch                                0
e.xota.ecmfb#branch                          0
v.xota.vncas#branch                          0
vcm#branch                                   0
vin#branch                                   0
vip#branch                                   0
vdd#branch                        -1.58789e-06

 Reference value :  0.00000e+00
 Reference value :  4.00750e-04
 Reference value :  8.17937e-04
 Reference value :  1.92230e-02
 Reference value :  1.96034e-02
 Reference value :  1.44747e-01
 Reference value :  1.45155e-01
 Reference value :  1.45618e-01
 Reference value :  1.46042e-01
 Reference value :  1.46464e-01
 Reference value :  1.97069e-01
 Reference value :  1.97565e-01
 Reference value :  1.98340e-01
 Reference value :  1.98822e-01
 Reference value :  1.99233e-01
 Reference value :  1.99565e-01
 Reference value :  1.99958e-01
No. of Data Rows : 7721
final_vdiff = -3.58510e-05
final_outp = -8.92740e-02
final_outn = -8.92381e-02
final_cm = -8.92560e-02
ngspice-42 done

Warning: m=xx on .subckt line will override multiplier m hierarchy!

Using SPARSE 1.3 as Direct Linear Solver
sh: 1: gnuplot: not found

  Vdiff_out=-0.036 mV  Gain=0.0 V/V = -28.9 dB
  Voutp=-0.0893  Voutn=-0.0892  CM=-0.0893
  WARNING: output may be saturated!

>>> TB2: AC Frequency Response

Note: Compatibility modes selected: hs a


Circuit: *lib "/home/ubuntu/workspace/sky130_models/sky130.lib.spice" tt

Doing analysis at TEMP = 27.000000 and TNOM = 27.000000

 Reference value :  1.00000e-02
No. of Data Rows : 501
gain_1hz            =  3.568080e+01
gain_60hz           =  3.578797e+01
gain_150hz          =  3.578797e+01
peak_gain           =  3.578798e+01 at=  9.120108e+01
bw_3db              =  1.030350e+06
gain_1hz = 3.568080e+01
gain_60hz = 3.578797e+01
gain_150hz = 3.578797e+01
peak_gain = 3.578798e+01
bw_3db = 1.030350e+06
ngspice-42 done

Warning: m=xx on .subckt line will override multiplier m hierarchy!

Using SPARSE 1.3 as Direct Linear Solver
Note: Starting dynamic gmin stepping
Note: Dynamic gmin stepping completed
sh: 1: gnuplot: not found

  gain_1hz = 35.68
  gain_60hz = 35.79
  gain_150hz = 35.79
  peak_gain = 35.79
  bw_3db = 1.03e+06

>>> TB3: CMRR

Note: Compatibility modes selected: hs a


Circuit: *lib "/home/ubuntu/workspace/sky130_models/sky130.lib.spice" tt

Doing analysis at TEMP = 27.000000 and TNOM = 27.000000

 Reference value :  1.00000e+00
No. of Data Rows : 201
cm_gain_60          =  -2.220917e+02
cm_gain_60 = -2.22092e+02
ngspice-42 done

Warning: m=xx on .subckt line will override multiplier m hierarchy!

Using SPARSE 1.3 as Direct Linear Solver
Note: Starting dynamic gmin stepping
Note: Dynamic gmin stepping completed
sh: 1: gnuplot: not found

  CM→Diff gain at 60 Hz = -222.1 dB
  CMRR = 35.8 - (-222.1) = 257.9 dB

>>> TB4: Input-Referred Noise (0.5–150 Hz)
arning: Source conductance reset to 1.0e3 mho.
Warning: Drain conductance reset to 1.0e3 mho.
Warning: Source conductance reset to 1.0e3 mho.
Warning: Drain conductance reset to 1.0e3 mho.
Warning: Source conductance reset to 1.0e3 mho.
Warning: Drain conductance reset to 1.0e3 mho.
Warning: Source conductance reset to 1.0e3 mho.
Warning: Drain conductance reset to 1.0e3 mho.
Warning: Source conductance reset to 1.0e3 mho.
Warning: Drain conductance reset to 1.0e3 mho.
Warning: Source conductance reset to 1.0e3 mho.
Warning: Drain conductance reset to 1.0e3 mho.
Warning: Source conductance reset to 1.0e3 mho.
Warning: Drain conductance reset to 1.0e3 mho.
Warning: Source conductance reset to 1.0e3 mho.
Warning: Drain conductance reset to 1.0e3 mho.
Warning: Source conductance reset to 1.0e3 mho.
Warning: Drain conductance reset to 1.0e3 mho.
Warning: Source conductance reset to 1.0e3 mho.
Warning: Drain conductance reset to 1.0e3 mho.
Warning: Source conductance reset to 1.0e3 mho.
Warning: Drain conductance reset to 1.0e3 mho.
Warning: Source conductance reset to 1.0e3 mho.
Warning: Drain conductance reset to 1.0e3 mho.
 Reference value :  5.00000e-01
No. of Data Rows : 248

No. of Data Rows : 1
onoise_total = 5.916859e-05
inoise_total = 9.626905e-07
ngspice-42 done

Warning: m=xx on .subckt line will override multiplier m hierarchy!

Using SPARSE 1.3 as Direct Linear Solver
Note: Starting dynamic gmin stepping
Note: Dynamic gmin stepping completed
sh: 1: gnuplot: not found

  Input-referred noise (0.5-150 Hz) = 0.963 µVrms
  Output noise (0.5-150 Hz) = 59.169 µVrms
  Input-referred noise = 0.963 µVrms

>>> TB5: Input Offset
a.becmfb#branch                         0
bgfb_n#branch                                0
bgfb_p#branch                                0
bgpb_n#branch                                0
bgpb_p#branch                                0
e.xota.ecmfb#branch                          0
v.xota.vncas#branch                          0
vcm#branch                                   0
vin#branch                                   0
vip#branch                                   0
vdd#branch                        -1.58789e-06

 Reference value :  0.00000e+00
 Reference value :  2.09629e-02
 Reference value :  2.14542e-02
 Reference value :  2.19363e-02
 Reference value :  1.21919e-01
 Reference value :  1.42973e-01
 Reference value :  1.43347e-01
 Reference value :  1.43761e-01
 Reference value :  1.44208e-01
No. of Data Rows : 3978
vfinal = -1.11816e-07
ngspice-42 done

Warning: m=xx on .subckt line will override multiplier m hierarchy!

Using SPARSE 1.3 as Direct Linear Solver
sh: 1: gnuplot: not found

  Output offset = -0.000 mV
  Input offset = 0.0 µV

>>> TB6: Electrode Offset Tolerance
  Off +300mV: Vdiff=-0.09mV gain=-21.2dB sat=no
    Voutp=0.9064 Voutn=0.9065
  Off -300mV: Vdiff=1.21mV gain=1.7dB sat=YES
    Voutp=4.8346 Voutn=4.8333

>>> TB7: Realistic ECG Transient
e-02
 Reference value :  6.76616e-02
 Reference value :  6.79637e-02
 Reference value :  6.83293e-02
 Reference value :  6.86746e-02
 Reference value :  6.89876e-02
 Reference value :  6.93111e-02
 Reference value :  6.96244e-02
 Reference value :  6.99449e-02
 Reference value :  7.02600e-02
 Reference value :  7.06573e-02
 Reference value :  7.10094e-02
 Reference value :  7.13184e-02
 Reference value :  7.17182e-02
 Reference value :  7.20658e-02
 Reference value :  7.23679e-02
 Reference value :  7.26935e-02
 Reference value :  7.30548e-02
 Reference value :  7.33706e-02
 Reference value :  7.37608e-02
 Reference value :  7.41202e-02
 Reference value :  7.44097e-02
 Reference value :  7.47710e-02
 Reference value :  7.51524e-02
 Reference value :  7.54849e-02
 Reference value :  7.57903e-02
 Reference value :  7.61309e-02
 Reference value :  7.63907e-02
 Reference value :  7.66743e-02
 Reference value :  7.70357e-02
 Reference value :  7.74038e-02
 Reference value :  8.00515e-02
 Reference value :  8.03289e-02
 Reference value :  8.06907e-02
 Reference value :  8.09845e-02
 Reference value :  8.13379e-02
 Reference value :  8.16814e-02
maxout = 8.894904e+00
minout = -6.18246e-01
ngspice-42 done

Warning: m=xx on .subckt line will override multiplier m hierarchy!

Using SPARSE 1.3 as Direct Linear Solver
doAnalyses: TRAN:  Timestep too small; time = 0.0817043, timestep = 1.25e-16: trouble with node "e.xota.ecmfb#branch"


run simulation(s) aborted
sh: 1: gnuplot: not found

  Max output: 8.8949 V
  Min output: -0.6182 V
  WARNING: Output saturated!

>>> Power Consumption

Note: Compatibility modes selected: hs a


Circuit: *lib "/home/ubuntu/workspace/sky130_models/sky130.lib.spice" tt

Doing analysis at TEMP = 27.000000 and TNOM = 27.000000

 Reference value :  0.00000e+00
No. of Data Rows : 1
idd = 5.957858e-06
pwr = 1.072414e+01
ngspice-42 done

Warning: m=xx on .subckt line will override multiplier m hierarchy!

Using SPARSE 1.3 as Direct Linear Solver
Note: Starting dynamic gmin stepping
Note: Dynamic gmin stepping completed

  Isupply=5.96 µA  Power=10.72 µW

============================================================
SCORING
============================================================
  gain_db                             tgt=     >34  val=       35.79  [PASS] w=15
  input_referred_noise_uvrms          tgt=    <1.5  val=      0.9627  [PASS] w=25
  cmrr_60hz_db                        tgt=    >100  val=       257.9  [PASS] w=20
  input_offset_uv                     tgt=     <50  val=    0.001816  [PASS] w=15
  bandwidth_hz                        tgt=  >10000  val=    1.03e+06  [PASS] w=10
  power_uw                            tgt=     <15  val=       10.72  [PASS] w=15

  Score: 1.0000  (6/6 pass)

score = 1.0000
specs_met = 6/6

============================================================
TB8: PVT CORNER ANALYSIS
============================================================
  tt   -40°C: gain=  35.7dB  noise=  0.88µV  BW=   1.00M  [PASS]
  tt   +27°C: gain=  35.8dB  noise=  0.96µV  BW=   1.03M  [PASS]
  tt  +125°C: gain=  35.8dB  noise=  1.08µV  BW=   1.06M  [PASS]
  ss   -40°C: gain=  35.7dB  noise=  0.89µV  BW=   0.92M  [PASS]
  ss   +27°C: gain=  35.8dB  noise=  0.96µV  BW=   0.94M  [PASS]
  ss  +125°C: gain=  35.8dB  noise=  1.08µV  BW=   0.95M  [PASS]
  ff   -40°C: gain=  35.8dB  noise=  0.87µV  BW=   1.10M  [PASS]
  ff   +27°C: gain=  35.8dB  noise=  0.97µV  BW=   1.13M  [PASS]
  ff  +125°C: gain=  35.8dB  noise=  1.09µV  BW=   1.17M  [PASS]
  sf   -40°C: gain=  35.8dB  noise=  0.91µV  BW=   1.12M  [PASS]
  sf   +27°C: gain=  35.8dB  noise=  0.98µV  BW=   1.19M  [PASS]
  sf  +125°C: gain=  35.8dB  noise=  1.09µV  BW=   1.22M  [PASS]
  fs   -40°C: gain=  35.6dB  noise=  0.85µV  BW=   0.91M  [PASS]
  fs   +27°C: gain=  35.7dB  noise=  0.95µV  BW=   0.91M  [PASS]
  fs  +125°C: gain=  35.8dB  noise=  1.07µV  BW=   0.92M  [PASS]

  PVT: 15/15 corners pass
